32
Lattice="6.33519223 9.91e-06 3.65764486 2.11174165 5.97287307 3.6576438700000002 2.776e-05 1.786e-05 14.63053184" Properties=species:S:1:pos:R:3 pbc="T T T"
Fe       2.16078961       5.97059782       7.28088411
Fe       2.18051631       5.85887356      14.67831532
Fe       2.21113777       5.96823050      18.29376921
Fe       0.06579029       0.05645881       7.32863318
Fe       1.09053110       2.96572860      16.37228128
Fe       7.29653064       2.86773979      12.75057857
Fe       5.17534005       5.94043763       5.47088109
Fe       5.25576239       5.85981447      12.80213301
F        7.92989977       5.62968103       9.08991466
F        7.93476767       5.60193509      16.37442628
F        6.58361307       1.94571402       6.78566828
F        6.57734461       1.94799164      14.15760037
F        4.02139740       5.55783620       6.76367962
F        3.91236139       5.66032916      14.10436262
F        1.84090712       4.09391187       3.08291907
F        1.85578331       4.11181052      10.63921236
F        4.44175554       0.34351378       3.22447890
F        4.52671063       0.41106683      10.60517934
F        5.86690143       4.14590666       5.42349282
F        5.82315687       4.12990524      12.78464755
F        6.57683532       1.78571321      11.36429818
F        6.63164632       1.95076834      18.86825324
F        0.62093697       0.46833854       5.61910265
F        0.57385579       0.33055873      12.87539244
F        4.47877246       0.42216239       7.65985679
F        4.40986108       0.28292776      15.12944808
F        2.66781109       1.78887303       9.14088854
F        2.61039194       1.91367815      16.42666422
F        1.81156008       4.05187911       7.75253417
F        1.71823298       4.14463465      15.27555421
F        3.89238504       5.65227431      11.43430169
F        3.95363249       5.62650010      18.81585525
32
Lattice="6.33519223 9.91e-06 3.65764486 2.11174165 5.97287307 3.6576438700000002 2.776e-05 1.786e-05 14.63053184" Properties=species:S:1:pos:R:3 pbc="T T T"
Fe       2.52438622       5.87346288       7.22006006
Fe       2.45005451       5.55568073      14.88958841
Fe       2.34118705       5.93929641      18.32912704
Fe       2.31245820       5.91957140      11.06584123
Fe       1.10685079       2.98274026      16.39545023
Fe       7.13205203       2.56721140      12.60147192
Fe       4.97523645       5.91396328       5.51978054
Fe       5.14536924       5.43024958      12.85230313
F        8.07460425       5.80481108       8.88932476
F        8.01695146       5.71155385      16.15485772
F        6.48274714       2.17945198       6.57977284
F        6.53249623       2.16385114      14.18708123
F        4.02021247       5.52235089       6.40453236
F        3.76263003       5.76244708      13.77115845
F        1.90318070       4.10717347       2.86829062
F        1.95969376       4.01309671      10.80756320
F        4.41869325       0.30537620       3.32092298
F        4.53160724       0.65628935      10.94002253
F        6.06241620       4.26159636      19.82880503
F        5.81135335       4.18088297      12.74153781
F        6.46622170       1.59660815      11.14246626
F        6.70942535       2.36843860      19.12815055
F        0.90130348       0.67104633       6.03512345
F        0.71737315       0.10056107      12.89881725
F        4.31716126       0.66087087       7.25575254
F        6.51210771       5.91016615      18.80142164
F        2.67205222       1.65766088       9.21947413
F        2.53747908       1.92812250      16.31801697
F        1.74494593       4.00283833       7.76965750
F        7.58202487       4.25293354      19.41928865
F        3.70042328       5.85322788      11.68024327
F        3.83092320       5.57803415      18.94276726
32
Lattice="6.33519223 9.91e-06 3.65764486 2.11174165 5.97287307 3.6576438700000002 2.776e-05 1.786e-05 14.63053184" Properties=species:S:1:pos:R:3 pbc="T T T"
Fe       2.54109511       5.86253310       7.22707836
Fe       2.46739349       5.54300486      14.89478186
Fe       2.33743012       5.94111028      18.34052691
Fe       2.30741868       5.88621455      11.07423942
Fe       1.08766540       2.98416474      16.45170758
Fe       7.13319719       2.58691831      12.59055144
Fe       4.98169442       5.90281018       5.53418639
Fe       5.12830391       5.42324863      12.82629911
F        8.07049095       5.80442313       8.89552292
F        8.00190189       5.72961638      16.15378522
F        6.49308548       2.21202366       6.57241529
F        6.53250661       2.16792936      14.19146646
F        3.96801493       5.47730903       6.38973753
F        3.75346407       5.77258980      13.72798843
F        1.89932793       4.13390568       2.84954886
F        1.96043979       3.98586788      10.78077135
F        4.43207431       0.30031139       3.34151715
F        4.55404014       0.66220212      10.98019820
F        6.05140228       4.28669698      19.81554911
F        5.78985616       4.15266984      12.75709729
F        6.43954282       1.59306835      11.09807803
F        6.74549631       2.42802394      19.12013948
F        0.91174812       0.67591585       6.07878381
F        0.73595519       0.07649992      12.87830680
F        4.30847228       0.67252375       7.24715759
F        6.52296935       5.88246391      18.75572016
F        2.65314329       1.66540852       9.24721542
F        2.52741493       1.91294064      16.27600907
F        1.78919231       4.02250744       7.76571581
F        7.58806603       4.27437815      19.42183358
F        3.70865895       5.83576001      11.71393702
F        3.83415938       5.57652509      18.98080590
32
Lattice="6.33519223 9.91e-06 3.65764486 2.11174165 5.97287307 3.6576438700000002 2.776e-05 1.786e-05 14.63053184" Properties=species:S:1:pos:R:3 pbc="T T T"
Fe       2.54006784       5.86612783       7.22777995
Fe       2.46657771       5.54330991      14.89742933
Fe       2.33869733       5.94194869      18.34126454
Fe       2.30780328       5.88271163      11.07577488
Fe       1.08705110       2.98434832      16.45257718
Fe       7.12948977       2.58550614      12.59251316
Fe       4.98353855       5.90290710       5.53404524
Fe       5.12715802       5.42248576      12.82508626
F        8.07155644       5.80693733       8.89304583
F        8.00049437       5.73029678      16.15342567
F        6.49315655       2.21069961       6.57205894
F        6.53446409       2.16992261      14.18773710
F        3.96843696       5.47662967       6.38841887
F        3.75359221       5.77211386      13.72799538
F        1.89976748       4.13384127       2.85075793
F        1.95952151       3.98552230      10.78053201
F        4.43296535       0.29991050       3.34190297
F        4.55314727       0.66147336      10.98181093
F        6.05263306       4.28670303      19.81413698
F        5.78964991       4.14935556      12.75875740
F        6.44063546       1.59538880      11.09853389
F        6.74636162       2.42880400      19.11944675
F        0.91233960       0.67667333       6.07807347
F        0.73569551       0.07538016      12.87805291
F        4.30894942       0.67398821       7.24623471
F        6.52386281       5.88066359      18.75472923
F        2.65428648       1.66794696       9.24863854
F        2.52502054       1.91107430      16.27502131
F        1.79028811       4.02100572       7.76537226
F        7.58773348       4.27591614      19.42063540
F        3.70769096       5.83378769      11.71466174
F        3.83298902       5.57818532      18.98222079
32
Lattice="6.33519223 9.91e-06 3.65764486 2.11174165 5.97287307 3.6576438700000002 2.776e-05 1.786e-05 14.63053184" Properties=species:S:1:pos:R:3 pbc="T T T"
Fe       2.53937523       5.87060794       7.22848641
Fe       2.46629736       5.54312670      14.89993486
Fe       2.34026055       5.94280752      18.34181394
Fe       2.30910123       5.88035061      11.07814967
Fe       1.08633736       2.98485071      16.45536061
Fe       7.12605014       2.58406611      12.59419046
Fe       4.98601015       5.90258540       5.53518898
Fe       5.12575309       5.42213797      12.82396399
F        8.07144031       5.80902531       8.89156404
F        7.99914864       5.73102971      16.15298081
F        6.49384783       2.20982272       6.57124050
F        6.53652113       2.17218241      14.18435113
F        3.96738069       5.47557263       6.38815026
F        3.75462325       5.77259956      13.72684882
F        1.89943748       4.13400760       2.85096077
F        1.95909317       3.98492514      10.77939322
F        4.43365696       0.30030928       3.34314919
F        4.55125495       0.66062292      10.98291501
F        6.05464433       4.28577596      19.81267922
F        5.78885594       4.14651631      12.76060585
F        6.44343381       1.59639802      11.09778935
F        6.74642721       2.43003515      19.11797942
F        0.91182750       0.67734839       6.07972974
F        0.73612715       0.07386428      12.87754806
F        4.30925849       0.67608279       7.24568607
F        6.52615762       5.87880104      18.75120722
F        2.65294283       1.66796384       9.24983553
F        2.52351426       1.90930124      16.27397477
F        1.79185743       4.01913776       7.76539290
F        7.58779263       4.27826461      19.41968718
F        3.70639810       5.83229617      11.71540501
F        3.83079501       5.57914968      18.98250858
32
Lattice="6.33519223 9.91e-06 3.65764486 2.11174165 5.97287307 3.6576438700000002 2.776e-05 1.786e-05 14.63053184" Properties=species:S:1:pos:R:3 pbc="T T T"
Fe       2.53921328       5.87230598       7.22879706
Fe       2.46616176       5.54289522      14.90082430
Fe       2.34100539       5.94316458      18.34192604
Fe       2.30913317       5.88001933      11.07946876
Fe       1.08630193       2.98515029      16.45687617
Fe       7.12506061       2.58373219      12.59429184
Fe       4.98730963       5.90246691       5.53579855
Fe       5.12540830       5.42185377      12.82355088
F        8.07083441       5.80967942       8.89142807
F        7.99809618       5.73204396      16.15281457
F        6.49436770       2.20955272       6.57085744
F        6.53677316       2.17245265      14.18356333
F        3.96642140       5.47510067       6.38842869
F        3.75538382       5.77299202      13.72608214
F        1.89897795       4.13407466       2.85043797
F        1.95917344       3.98360094      10.77866699
F        4.43382918       0.30065736       3.34364609
F        4.55145917       0.66027706      10.98372104
F        6.05591503       4.28549934      19.81187134
F        5.78791916       4.14596458      12.76129022
F        6.44396996       1.59660805      11.09725760
F        6.74669322       2.43081716      19.11732411
F        0.91176261       0.67795872       6.07986507
F        0.73636909       0.07316362      12.87724462
F        4.30947022       0.67708934       7.24546330
F        6.52727997       5.87752515      18.74974014
F        2.65207544       1.66712450       9.25029221
F        2.52234584       1.90864411      16.27354606
F        1.79254428       4.01849233       7.76542732
F        7.58773888       4.27937344      19.41946555
F        3.70654210       5.83181583      11.71634594
F        3.83008555       5.57946955      18.98235813
32
Lattice="6.33519223 9.91e-06 3.65764486 2.11174165 5.97287307 3.6576438700000002 2.776e-05 1.786e-05 14.63053184" Properties=species:S:1:pos:R:3 pbc="T T T"
Fe       2.53944443       5.87562978       7.22912123
Fe       2.46629141       5.54220301      14.90299205
Fe       2.34266946       5.94347858      18.34315970
Fe       2.30863060       5.87983895      11.08244491
Fe       1.08620308       2.98637585      16.46117190
Fe       7.12278511       2.58373791      12.59303264
Fe       4.99005567       5.90159260       5.53828235
Fe       5.12494089       5.42004239      12.82255402
F        8.07140376       5.81111622       8.89014310
F        7.99530599       5.73526222      16.15266114
F        6.49560969       2.20982875       6.57032889
F        6.53564294       2.17194027      14.18347515
F        3.96261878       5.47445356       6.38759724
F        3.75676374       5.77348817      13.72423614
F        1.89749675       4.13511048       2.84847571
F        1.95983718       3.97970066      10.77679662
F        4.43442783       0.30167798       3.34514788
F        4.55283225       0.65928043      10.98584267
F        6.05807017       4.28438778      19.81032838
F        5.78513987       4.14565753      12.76285500
F        6.44457595       1.59678152      11.09461932
F        6.74719215       2.43273979      19.11532359
F        0.91109994       0.67939032       6.08121628
F        0.73704496       0.07108497      12.87668479
F        4.30988683       0.67934425       7.24481890
F        6.52989472       5.87571499      18.74504606
F        2.65198568       1.66569606       9.25175301
F        2.52069718       1.90651196      16.27229234
F        1.79413582       4.01744244       7.76542194
F        7.58870759       4.28171263      19.41941126
F        3.70726471       5.83021309      11.71866499
F        3.82696667       5.58013031      18.98277235
32
Lattice="6.33519223 9.91e-06 3.65764486 2.11174165 5.97287307 3.6576438700000002 2.776e-05 1.786e-05 14.63053184" Properties=species:S:1:pos:R:3 pbc="T T T"
Fe       2.54011598       5.87759906       7.22929152
Fe       2.46607972       5.54150291      14.90450214
Fe       2.34416045       5.94375071      18.34373176
Fe       2.30854801       5.87872769      11.08451846
Fe       1.08622227       2.98708116      16.46358033
Fe       7.12248561       2.58375401      12.59205210
Fe       4.99154884       5.90076808       5.53984420
Fe       5.12403337       5.41956297      12.82168529
F        8.07171694       5.81179569       8.88973241
F        7.99475384       5.73713285      16.15113472
F        6.49581611       2.20989371       6.57099154
F        6.53447301       2.17193094      14.18482344
F        3.95992573       5.47428649       6.38614027
F        3.75786684       5.77380344      13.72215354
F        1.89741019       4.13606110       2.84822419
F        1.96057551       3.97880765      10.77584673
F        4.43447824       0.30256101       3.34612465
F        4.55352359       0.65836227      10.98713523
F        6.05784682       4.28464431      19.80898855
F        5.78324510       4.14592680      12.76370427
F        6.44484734       1.59651787      11.09245067
F        6.74751638       2.43372182      19.11331834
F        0.91062459       0.67964094       6.08298683
F        0.73771683       0.06983691      12.87641490
F        4.30980273       0.68074500       7.24462429
F        6.53135923       5.87400184      18.74230857
F        2.65141133       1.66421071       9.25245371
F        2.52051657       1.90458341      16.27119043
F        1.79536126       4.01667903       7.76558402
F        7.58959942       4.28358928      19.41868179
F        3.70666886       5.82940062      11.72061388
F        3.82537108       5.58068518      18.98383876
32
Lattice="6.33519223 9.91e-06 3.65764486 2.11174165 5.97287307 3.6576438700000002 2.776e-05 1.786e-05 14.63053184" Properties=species:S:1:pos:R:3 pbc="T T T"
Fe       2.54062906       5.89760567       7.23496209
Fe       2.46263113       5.53426365      14.91390444
Fe       2.35108609       5.94837103      18.35326859
Fe       2.31641689       5.86256777      11.09300992
Fe       1.08773474       2.99242898       1.85142468
Fe       7.11194706       2.58716997      12.58883797
Fe       5.00428540       5.89657367       5.54885106
Fe       5.11142137       5.41542935      12.81302413
F        8.07110967       5.82140449       8.88542391
F        7.98501196       5.74534663      16.14807095
F        6.50349374       2.21393662       6.56992381
F        6.52926677       2.18034783      14.18789132
F        3.94464408       5.46811813       6.37683965
F        3.76539724       5.77630337      13.70783727
F        1.88685690       4.13528743       2.83527894
F        1.96307993       3.96944562      10.76561870
F        4.43479506       0.30523559       3.35240524
F        4.55258141       0.65899814      10.99795798
F        6.06380963       4.28645595      19.79908365
F        5.78170215       4.13345992      12.77235798
F        6.43899579       1.60240370      11.07677692
F        6.75827344       2.44841972      19.10525736
F        0.91006452       0.67538895       6.10187556
F        0.75091474       0.06235357      12.86998050
F        4.30894953       0.69294501       7.24259808
F        6.54229966       5.85808733      18.72098782
F        2.64915650       1.66128617       9.25980945
F        2.50338350       1.89226246      16.26140776
F        1.80386685       4.00872912       7.76903090
F        7.59453979       4.29254289      19.41957945
F        3.70480467       5.82013044      11.72905920
F        3.82244478       5.58824842      18.99580440
32
Lattice="6.33519223 9.91e-06 3.65764486 2.11174165 5.97287307 3.6576438700000002 2.776e-05 1.786e-05 14.63053184" Properties=species:S:1:pos:R:3 pbc="T T T"
Fe       2.54388347       5.92461368       7.24875120
Fe       2.46741006       5.52361853      14.93248484
Fe       2.36410152       5.97282171      18.37791011
Fe       2.32400835       5.84680888      11.12952043
Fe       1.08691190       3.01158885       1.87914155
Fe       7.09448807       2.58945926      12.57350716
Fe       5.02311764       5.88471023       5.56570407
Fe       5.09157548       5.40112986      12.79888884
F        8.07493290       5.83079799       8.88174761
F        7.97035898       5.75810182      16.13260846
F        6.51520738       2.22513162       6.57434758
F        6.51689132       2.19256074      14.19962836
F        3.91714871       5.44901120       6.35246467
F        3.76728331       5.79000206      13.69217728
F        1.86229075       4.11248447       2.80586445
F        1.97144350       3.94159366      10.74593885
F        4.43360074       0.30942393       3.36329554
F        4.56091800       0.66815308      11.00850213
F        6.06827427       4.29341024      19.78408422
F        5.77663160       4.11459077      12.78515680
F        6.42347717       1.60517376      11.05585440
F        6.77523112       2.48218717      19.08405119
F        0.90351509       0.66731593       6.12776661
F        0.77787494       0.04509862      12.84768781
F        4.30291896       0.71749766       7.24251872
F        6.56336335       5.82840482      18.68263727
F        2.64829761       1.65510991       9.27886525
F        2.48369877       1.86803325      16.23536934
F        1.81976720       3.99803741       7.77305782
F        7.60558356       4.31386173      19.42023982
F        3.69231569       5.80202363      11.74260807
F        3.82907264       5.60879114      19.02575926
