40
Lattice="-2.725603999999999 2.725603999999999 5.052721 5.451207999999998 -5.451207999999998 10.105442 5.451207999999998 5.451207999999998 -10.105442" Properties=species:S:1:pos:R:3 pbc="T T T"
Fe       2.66869643       0.10804022       0.11335386
Fe       5.64907349       2.75459270      -5.05101174
Fe       5.65180021      -2.68762293       5.13572930
Fe       5.41581079       2.62193511       5.17269373
Fe       5.35541487      -2.86068562       9.87418366
Fe       2.70738109       5.26611090      -5.01154935
Fe       2.75399073      -0.29365390       5.29303920
Fe       5.60314521       2.75974285      -0.10813469
F       -1.06743513       1.97778418       6.07165055
F        1.71260726       4.42414192       1.34603761
F        4.72498120      -3.27544245       6.27407699
F        4.38425288       1.67186798       6.08516913
F       -0.93221839       1.69414720       3.84343832
F        1.90475076       4.78164195      -1.19270560
F        1.93090336      -0.94034451       8.72851898
F        4.48563974       1.68740130       3.83880308
F        0.82289545       3.39588191       3.77724417
F        6.35172509       3.66880896      -6.04459473
F        6.54558793      -1.74064555       3.82113199
F        9.19671806       0.99375122      -1.39940383
F        1.63156472       1.03140053       3.36956614
F        4.34948062       3.85005574      -1.09251153
F        4.62561572      -1.90468209       8.96103029
F        7.29445889       0.81251146       4.01318279
F        3.32765608       0.94118259       0.85703355
F        6.64978912       3.84823112      -4.07149509
F        6.11579129      -1.95500140       6.21513954
F        9.31429942       1.21062765       1.46244283
F        1.91811747       0.71951036       6.76363707
F        4.54573053       3.70379541       1.19315059
F        4.30982458      -1.46207284      11.17341665
F        7.48126834       0.48931141       6.02897648
F        1.07896584       1.71839052       1.32789890
F        3.47679857       4.46678378      -4.20406053
F        3.67291041      -1.07160714       6.49922866
F        6.22210278       2.05048811       1.26617661
F        0.81022604       1.90897124      -1.40455243
F        3.56094394       4.42701774      -5.76807234
F        3.76246421      -1.08879218       3.86731942
F        6.23046265       2.07014087      -1.08807067
40
Lattice="-2.725603999999999 2.725603999999999 5.052721 5.451207999999998 -5.451207999999998 10.105442 5.451207999999998 5.451207999999998 -10.105442" Properties=species:S:1:pos:R:3 pbc="T T T"
Fe       2.57996934       0.05820913       0.03016186
Fe       5.63525697       2.79620308      -4.89475883
Fe       2.98480023      -0.01254252      10.10385945
Fe       5.40140424       2.58626048       5.18712260
Fe       5.28651834      -2.85857035       9.89558154
Fe       8.07819582      -0.22362027       4.89571794
Fe       2.69750305      -0.26221318       5.25027604
Fe       5.59871111       2.80117492      -0.12377024
F       -1.10769639       1.95660506       5.97836569
F        1.67318673       4.45242363       1.35617890
F        4.72065299      -3.16762792       6.38526793
F        4.34269266       1.61948913       6.01814146
F       -0.96037859       1.54973701       3.88682161
F        1.89828857       4.86360808      -1.24059201
F        2.01700576      -0.90565283       8.71561044
F        4.48281982       1.69561635       3.82115857
F        0.77321697       3.25468266       3.84704191
F        6.37731504       3.76429892      -6.07811398
F        6.54477932      -1.80624959       3.95954868
F        9.22153664       1.04012172      -1.44173633
F        1.56224721       1.02614003       3.34632467
F        4.33781719       3.97370017      -1.00966884
F        4.65874810      -1.92280589       8.77657863
F        7.34286785       0.76539805       4.07318554
F        3.28350097       0.90404740       0.77873083
F        6.63735465       3.83162638      -4.19823828
F        6.12575082      -1.87630827       6.18677700
F        9.32502313       1.28058833       1.56705131
F        1.99637326       0.71460175       6.88706683
F        4.62609920       3.74636304       1.12645496
F        4.16551102      -1.31996966      11.10176091
F        7.56304541       0.33104863       6.14352795
F        1.17915287       1.68728144       1.40172651
F        3.31749756       4.57239898      -4.24547133
F        3.79020704      -1.15370924       6.53617952
F        6.26527726       2.07532679       1.25903306
F        0.74359769       2.02545096      -1.35682947
F        3.73109764       4.27620820      -5.70429957
F        3.81492204      -1.21485252       3.93896474
F        6.25792669       2.12362426      -1.06546766
40
Lattice="-2.725603999999999 2.725603999999999 5.052721 5.451207999999998 -5.451207999999998 10.105442 5.451207999999998 5.451207999999998 -10.105442" Properties=species:S:1:pos:R:3 pbc="T T T"
Fe       2.58172994       0.06247325       0.03087552
Fe       5.63717353       2.79166359      -4.89516427
Fe       2.98777077      -0.01086111      10.11001195
Fe       5.40164889       2.59050062       5.18738416
Fe       5.28467145      -2.85744497       9.88878689
Fe       8.07698651      -0.22066735       4.89492503
Fe       2.69993338      -0.26252381       5.24631889
Fe       5.59897131       2.80066309      -0.12810987
F       -1.10793771       1.95611096       5.97933040
F        1.67278815       4.45119948       1.35742371
F        4.72271393      -3.16935998       6.38062341
F        4.34299313       1.62028336       6.01797879
F       -0.96423099       1.55095538       3.88348115
F        1.89982232       4.86538644      -1.23806853
F        2.01586709      -0.90476937       8.71354269
F        4.48259397       1.69552628       3.82382364
F        0.77138754       3.25799036       3.84474658
F        6.37884836       3.76466745      -6.08459269
F        6.53905741      -1.81138591       3.96183355
F        9.22246857       1.04100415      -1.44090904
F        1.56627531       1.02665384       3.35121000
F        4.33285146       3.97093840      -1.00898004
F        4.65446605      -1.91811707       8.77773064
F        7.34516133       0.76470716       4.07441481
F        3.28798360       0.90504358       0.78263089
F        6.63461596       3.82545071      -4.19712498
F        6.13125514      -1.87705168       6.18235744
F        9.32260798       1.28067851       1.56575064
F        1.99979027       0.71667914       6.89350435
F        4.62258529       3.74955133       1.12705796
F        4.16271326      -1.32321715      11.10019482
F        7.56292949       0.32924277       6.14644011
F        1.17899917       1.68920896       1.40249633
F        3.31505946       4.57532715      -4.24695843
F        3.79169893      -1.15592894       6.53853475
F        6.26687510       2.07059772       1.26595264
F        0.74497767       2.02248347      -1.35650878
F        3.72728771       4.27519981      -5.70486771
F        3.81716290      -1.21332589       3.93598329
F        6.25924258       2.12257860      -1.06879016
40
Lattice="-2.725603999999999 2.725603999999999 5.052721 5.451207999999998 -5.451207999999998 10.105442 5.451207999999998 5.451207999999998 -10.105442" Properties=species:S:1:pos:R:3 pbc="T T T"
Fe       2.58111787       0.05764101       0.02925249
Fe       5.63475409       2.79786130      -4.89430792
Fe       2.98453775      -0.01295520      10.10094370
Fe       5.40012028       2.58300512       5.18646955
Fe       5.28727352      -2.85871774       9.89879729
Fe       8.07818342      -0.22425874       4.89514961
Fe       2.69594883      -0.26173170       5.25213890
Fe       5.59827241       2.80231026      -0.12372456
F       -1.10972979       1.95472728       5.97999666
F        1.67330381       4.45272596       1.35555947
F        4.72075087      -3.16667178       6.38642858
F        4.34321845       1.61978938       6.01579439
F       -0.95985706       1.54788040       3.88640594
F        1.89787241       4.86314448      -1.24176640
F        2.01823743      -0.90562584       8.71744554
F        4.48342753       1.69641639       3.82282910
F        0.77410198       3.25341775       3.84818330
F        6.37600707       3.76399958      -6.07555861
F        6.54558536      -1.80594431       3.96042496
F        9.22078194       1.03991063      -1.44172158
F        1.56070752       1.02610435       3.34435764
F        4.33978721       3.97503045      -1.01033582
F        4.65997570      -1.92428951       8.77620543
F        7.34335406       0.76454151       4.07427902
F        3.28195921       0.90417001       0.77750555
F        6.63807495       3.83385875      -4.19825015
F        6.12371029      -1.87677403       6.18717902
F        9.32633192       1.28057793       1.56760430
F        1.99523975       0.71360019       6.88437412
F        4.62564574       3.74671269       1.12567884
F        4.16643008      -1.31807135      11.10209829
F        7.56329508       0.33185412       6.14226213
F        1.17916160       1.68696015       1.40147448
F        3.31840162       4.57161518      -4.24536701
F        3.78962678      -1.15274086       6.53595021
F        6.26615385       2.07533692       1.25922855
F        0.74335336       2.02677391      -1.35729781
F        3.73254458       4.27687435      -5.70367747
F        3.81442124      -1.21533989       3.93913091
F        6.25771353       2.12439323      -1.06587008
40
Lattice="-2.725603999999999 2.725603999999999 5.052721 5.451207999999998 -5.451207999999998 10.105442 5.451207999999998 5.451207999999998 -10.105442" Properties=species:S:1:pos:R:3 pbc="T T T"
Fe       2.58049976       0.05366134       0.02760547
Fe       5.63074953       2.80094963      -4.89350000
Fe       2.98472483      -0.01222087      10.09083204
Fe       5.39831679       2.57495700       5.18606209
Fe       5.29001027      -2.85871317       9.90780305
Fe       8.07883007      -0.22715898       4.89555885
Fe       2.69382305      -0.25865988       5.25598272
Fe       5.59779980       2.80578779      -0.12258612
F       -1.11177003       1.95446312       5.98358058
F        1.67357685       4.45411105       1.35253763
F        4.71987204      -3.16278635       6.39093849
F        4.34296353       1.61832621       6.01479001
F       -0.95858478       1.54231619       3.88567476
F        1.89819459       4.86138308      -1.24374160
F        2.01900299      -0.90799483       8.72219279
F        4.48334625       1.69579091       3.82205271
F        0.77766431       3.24984843       3.85032167
F        6.37431053       3.76350161      -6.07125121
F        6.54626460      -1.80596775       3.96431820
F        9.21945699       1.03931886      -1.44267269
F        1.55700807       1.02595004       3.33748119
F        4.34705472       3.97897951      -1.01170976
F        4.66287994      -1.92742707       8.77384997
F        7.34266028       0.76310650       4.07531095
F        3.27763957       0.90475707       0.77457134
F        6.64093069       3.84117291      -4.19623112
F        6.11665578      -1.87663988       6.18702623
F        9.32969099       1.28023871       1.56893586
F        1.99065370       0.71149507       6.87887184
F        4.62661751       3.74509795       1.12293462
F        4.17015472      -1.31282262      11.10329231
F        7.56438664       0.33123480       6.13760091
F        1.17946077       1.68486075       1.40109748
F        3.31971900       4.56990885      -4.24536471
F        3.78955230      -1.14967625       6.53613625
F        6.26717531       2.07661109       1.25627122
F        0.74272376       2.03154528      -1.35763358
F        3.73455148       4.27921695      -5.70093177
F        3.81416099      -1.21762894       3.94235919
F        6.25706805       2.12721824      -1.06509732
40
Lattice="-2.725603999999999 2.725603999999999 5.052721 5.451207999999998 -5.451207999999998 10.105442 5.451207999999998 5.451207999999998 -10.105442" Properties=species:S:1:pos:R:3 pbc="T T T"
Fe       2.58030428       0.05278169       0.02750945
Fe       5.62934927       2.80203445      -4.89355311
Fe       2.98482526      -0.01170510      10.08761929
Fe       5.39796039       2.57290702       5.18581305
Fe       5.29096943      -2.85861894       9.90924602
Fe       8.07883645      -0.22807309       4.89589400
Fe       2.69336865      -0.25703881       5.25666135
Fe       5.59792847       2.80648704      -0.12250851
F       -1.11154848       1.95544853       5.98480492
F        1.67377649       4.45456158       1.35156504
F        4.71941454      -3.16101736       6.39302255
F        4.34282725       1.61773584       6.01515690
F       -0.95814846       1.54049637       3.88525077
F        1.89869219       4.86099619      -1.24394647
F        2.01880966      -0.90939055       8.72321468
F        4.48323503       1.69558282       3.82110339
F        0.77869543       3.24844716       3.85130221
F        6.37364220       3.76305024      -6.06971102
F        6.54652137      -1.80601043       3.96565546
F        9.21965261       1.03959697      -1.44289831
F        1.55596804       1.02595878       3.33486292
F        4.34879500       3.98088359      -1.01306438
F        4.66465962      -1.92966654       8.77362361
F        7.34205628       0.76287320       4.07537451
F        3.27566248       0.90426880       0.77312489
F        6.64129422       3.84306805      -4.19594145
F        6.11403172      -1.87638095       6.18701128
F        9.33068208       1.27994371       1.56899523
F        1.98870101       0.71108999       6.87750295
F        4.62592439       3.74547133       1.12364207
F        4.17174527      -1.31149630      11.10357995
F        7.56477807       0.33080247       6.13605467
F        1.17949068       1.68404817       1.40053584
F        3.32006731       4.56937594      -4.24489822
F        3.79019923      -1.14910251       6.53665553
F        6.26813867       2.07645390       1.25567558
F        0.74106081       2.03399336      -1.35650833
F        3.73575236       4.27931508      -5.70039747
F        3.81433948      -1.21855511       3.94358570
F        6.25733749       2.12749574      -1.06534604
40
Lattice="-2.725603999999999 2.725603999999999 5.052721 5.451207999999998 -5.451207999999998 10.105442 5.451207999999998 5.451207999999998 -10.105442" Properties=species:S:1:pos:R:3 pbc="T T T"
Fe       2.58019689       0.05155315       0.02697750
Fe       5.62785488       2.80351465      -4.89418705
Fe       2.98490117      -0.01136004      10.08361937
Fe       5.39771233       2.57071647       5.18534346
Fe       5.29090365      -2.85811215       9.91209641
Fe       8.07873248      -0.22909085       4.89636381
Fe       2.69211988      -0.25470220       5.25782973
Fe       5.59824378       2.80770429      -0.12255495
F       -1.11146248       1.95641468       5.98600491
F        1.67412294       4.45502925       1.35050365
F        4.71873202      -3.15917565       6.39471000
F        4.34282496       1.61716930       6.01576729
F       -0.95724264       1.53865000       3.88506933
F        1.90005548       4.86132959      -1.24395578
F        2.01888586      -0.91083798       8.72517995
F        4.48322691       1.69574097       3.81991896
F        0.77952833       3.24593458       3.85282344
F        6.37208730       3.76195884      -6.06732087
F        6.54650738      -1.80663946       3.96752453
F        9.21956038       1.03977934      -1.44305682
F        1.55431106       1.02624189       3.33211022
F        4.35098262       3.98333117      -1.01429133
F        4.66550428      -1.93129067       8.77332415
F        7.34136822       0.76266175       4.07553910
F        3.27366888       0.90380459       0.77119040
F        6.64140573       3.84500582      -4.19579379
F        6.11111849      -1.87607705       6.18649480
F        9.33189869       1.27950673       1.56894711
F        1.98664937       0.71023165       6.87590430
F        4.62544695       3.74571387       1.12407695
F        4.17337614      -1.30980410      11.10380516
F        7.56542404       0.33006793       6.13416598
F        1.17946871       1.68312498       1.40051851
F        3.32040721       4.56891892      -4.24429301
F        3.79092331      -1.14844715       6.53797865
F        6.26917084       2.07651055       1.25496738
F        0.74120323       2.03525806      -1.35641456
F        3.73746702       4.27925242      -5.69990403
F        3.81465900      -1.21989474       3.94377783
F        6.25785095       2.12841895      -1.06549016
40
Lattice="-2.725603999999999 2.725603999999999 5.052721 5.451207999999998 -5.451207999999998 10.105442 5.451207999999998 5.451207999999998 -10.105442" Properties=species:S:1:pos:R:3 pbc="T T T"
Fe       2.58002769       0.05003368       0.02577289
Fe       5.62632198       2.80540441      -4.89487204
Fe       2.98525336      -0.01055959      10.07865220
Fe       5.39806057       2.56877106       5.18439831
Fe       5.29033192      -2.85750630       9.91556866
Fe       8.07891899      -0.23061072       4.89675108
Fe       2.69065987      -0.25150422       5.25931856
Fe       5.59856959       2.80922432      -0.12241086
F       -1.11162011       1.95744904       5.98712234
F        1.67441342       4.45547226       1.34957959
F        4.71714368      -3.15755992       6.39681952
F        4.34240992       1.61599401       6.01750511
F       -0.95575288       1.53684326       3.88520978
F        1.90136201       4.86138699      -1.24470572
F        2.01920269      -0.91247008       8.72767954
F        4.48329063       1.69595689       3.81786458
F        0.77995407       3.24201885       3.85505958
F        6.37051619       3.76082140      -6.06466512
F        6.54646523      -1.80750154       3.97002812
F        9.21955503       1.03994195      -1.44300188
F        1.55213481       1.02687576       3.32911311
F        4.35375429       3.98605973      -1.01513765
F        4.66586950      -1.93269547       8.77273822
F        7.34062205       0.76238355       4.07576006
F        3.27157812       0.90341653       0.76856125
F        6.64145050       3.84712427      -4.19564166
F        6.10796661      -1.87502499       6.18565269
F        9.33337604       1.27893776       1.56872185
F        1.98435420       0.70927544       6.87408852
F        4.62564192       3.74514377       1.12394232
F        4.17543333      -1.30790772      11.10420253
F        7.56622108       0.32882621       6.13199005
F        1.17934220       1.68204904       1.40091220
F        3.32078646       4.56846729      -4.24428130
F        3.79198941      -1.14753399       6.53951596
F        6.27005512       2.07704130       1.25379480
F        0.74212174       2.03596110      -1.35661733
F        3.73851133       4.28003780      -5.69856153
F        3.81522741      -1.22170790       3.94386638
F        6.25827624       2.12977710      -1.06502420
40
Lattice="-2.725603999999999 2.725603999999999 5.052721 5.451207999999998 -5.451207999999998 10.105442 5.451207999999998 5.451207999999998 -10.105442" Properties=species:S:1:pos:R:3 pbc="T T T"
Fe       2.57512564       0.04067277       0.02277466
Fe       5.62303318       2.81000796      -4.89300417
Fe       2.98318981      -0.00518448      10.06016257
Fe       5.39878965       2.55828212       5.18071691
Fe       5.29031068      -2.85461660       9.92457468
Fe       8.07789800      -0.23747982       4.89627983
Fe       2.69133737      -0.24113395       5.26577343
Fe       5.59742337       2.81667661      -0.12159964
F       -1.11281547       1.95947596       5.99090576
F        1.67688963       4.45813808       1.34564973
F        4.71146494      -3.14557643       6.40332528
F        4.34147267       1.61125405       6.02073391
F       -0.95370664       1.52811754       3.88713559
F        1.90397926       4.85804525      -1.25139094
F        2.01995894      -0.91769480       8.73796644
F        4.48406588       1.69560882       3.81274033
F        0.78508813       3.23165561       3.85942650
F        6.36655811       3.75566942      -6.05539228
F        6.54950389      -1.80484762       3.98063363
F        9.21842745       1.03956002      -1.44263644
F        1.54659860       1.02662277       3.32033137
F        4.36499669       3.99692095      -1.01497777
F        4.67123149      -1.94135218       8.76912222
F        7.33980669       0.75811705       4.08041959
F        3.26647006       0.90417017       0.76079232
F        6.64304658       3.85478868      -4.19236661
F        6.09030387      -1.87024954       6.18307506
F        9.33929025       1.27600599       1.56898855
F        1.97462108       0.70395177       6.86874245
F        4.62528048       3.74326896       1.11525461
F        4.18502602      -1.30110918      11.10866312
F        7.57002146       0.32228613       6.12046313
F        1.17668492       1.68020433       1.39839934
F        3.32150102       4.56696511      -4.24611583
F        3.79785232      -1.14588784       6.53946419
F        6.27284762       2.07891704       1.25070227
F        0.74044281       2.04408275      -1.35623806
F        3.73935982       4.28653824      -5.69177452
F        3.81831982      -1.22999309       3.95034681
F        6.25810012       2.13723370      -1.06279747
40
Lattice="-2.725603999999999 2.725603999999999 5.052721 5.451207999999998 -5.451207999999998 10.105442 5.451207999999998 5.451207999999998 -10.105442" Properties=species:S:1:pos:R:3 pbc="T T T"
Fe       2.56902779       0.03017297       0.01751036
Fe       5.61965120       2.81377501      -4.88987821
Fe       2.98212472      -0.00410573      10.04443736
Fe       5.40483026       2.55131111       5.17135804
Fe       5.28884593      -2.85232926       9.93406681
Fe       8.07552867      -0.24943282       4.89413462
Fe       2.69637398      -0.22710342       5.27499323
Fe       5.59615197       2.82260299      -0.12281538
F       -1.11195286       1.96257065       5.99189919
F        1.67763024       4.45883269       1.34364158
F        4.71044671      -3.13391293       6.40725244
F        4.33447110       1.60622412       6.02430814
F       -0.95407245       1.51720402       3.89393391
F        1.90953620       4.85785625      -1.25744131
F        2.02753845      -0.92520994       8.75574069
F        4.48491297       1.69541446       3.80593231
F        0.79259079       3.22247186       3.86354958
F        6.35744657       3.74776057      -6.04379282
F        6.55564201      -1.80405175       4.00252143
F        9.21808030       1.04211995      -1.44282211
F        1.54569427       1.02455546       3.31130929
F        4.37572171       4.01166872      -1.01290512
F        4.67276427      -1.94951362       8.77422779
F        7.33606282       0.75646434       4.08063556
F        3.25839158       0.90099687       0.74890202
F        6.63693328       3.86323467      -4.18758811
F        6.07890216      -1.86703833       6.17403189
F        9.34531439       1.27902579       1.56892678
F        1.96543063       0.69260315       6.86372829
F        4.62134582       3.74625060       1.10872647
F        4.18804213      -1.28888779      11.10571446
F        7.57076827       0.31510977       6.11301589
F        1.17158948       1.68148690       1.39397488
F        3.32124067       4.56208622      -4.25149437
F        3.80615692      -1.14576505       6.53768378
F        6.27665979       2.08104701       1.25043268
F        0.73412304       2.05793675      -1.35935547
F        3.74626505       4.28726135      -5.68615761
F        3.82485661      -1.23789972       3.95483264
F        6.25872879       2.14531843      -1.06190105
